data/WSCC_9_bus.raw
 0,    100.00, 30, 0, 0, 60.00       / January 19, 2015 10:57:11


    1,'Bus1        ',  16.5000,3,     0.000,     0.000,   1,   1,1.0400000,   0.00000,   1
    2,'Bus 2       ',  18.0000,2,     0.000,     0.000,   1,   1,1.0250000,   9.35067,   1
    3,'Bus 3       ',  13.8000,2,     0.000,     0.000,   1,   1,1.0250000,   5.14198,   1
    4,'Bus 4       ', 230.0000,1,     0.000,     0.000,   1,   1,1.0253072,  -2.21741,   1
    5,'Bus 5       ', 230.0000,1,     0.000,     0.000,   1,   1,0.9997230,  -3.68015,   1
    6,'Bus 6       ', 230.0000,1,     0.000,     0.000,   1,   1,1.0122548,  -3.56656,   1
    7,'Bus 7       ', 230.0000,1,     0.000,     0.000,   1,   1,1.0268315,   3.79614,   1
    8,'Bus 8       ', 230.0000,1,     0.000,     0.000,   1,   1,1.0172659,   1.33727,   1
    9,'Bus 9       ', 230.0000,1,     0.000,     0.000,   1,   1,1.0326892,   2.44482,   1
0 / END OF BUS DATA, BEGIN LOAD DATA
    5,'1 ',1,   1,   1,   125.000,    50.000,     0.000,     0.000,     0.000,    -0.000,   1
    6,'1 ',1,   1,   1,    90.000,    30.000,     0.000,     0.000,     0.000,    -0.000,   1
    8,'1 ',1,   1,   1,   100.000,    35.000,     0.000,     0.000,     0.000,    -0.000,   1
0 / END OF LOAD DATA, BEGIN GENERATOR DATA
    1,'1 ',    71.627,    27.915,  9900.000, -9900.000,1.04000,    0,   500.000,   0.00000,   0.20000,   0.00000,   0.00000,1.00000,1,  100.0,   450.000,     0.000,   1,1.0000,   0,1.0000,   0,1.0000,   0,1.0000
    2,'1 ',   163.000,     4.903,  9900.000, -9900.000,1.02500,    0,   250.000,   0.00000,   0.22500,   0.00000,   0.00000,1.00000,1,  100.0,   240.000,     0.000,   1,1.0000,   0,1.0000,   0,1.0000,   0,1.0000
    3,'1 ',    85.000,   -11.449,  9900.000, -9900.000,1.02500,    0,   100.000,   0.00000,   0.15000,   0.00000,   0.00000,1.00000,1,  100.0,    90.000,     0.000,   1,1.0000,   0,1.0000,   0,1.0000,   0,1.0000
0 / END OF GENERATOR DATA, BEGIN BRANCH DATA
    5,     4,'1 ', 0.01000, 0.06800,0.17600,   0.00,   0.00,   0.00,  0.00000,  0.00000,  0.00000,  0.00000,1,   0.0,   1,1.0000,   0,1.0000,   0,1.0000,   0,1.0000
    6,     4,'1 ', 0.01700, 0.09200,0.15800,   0.00,   0.00,   0.00,  0.00000,  0.00000,  0.00000,  0.00000,1,   0.0,   1,1.0000,   0,1.0000,   0,1.0000,   0,1.0000
    7,     5,'1 ', 0.03200, 0.16100,0.30600,   0.00,   0.00,   0.00,  0.00000,  0.00000,  0.00000,  0.00000,1,   0.0,   1,1.0000,   0,1.0000,   0,1.0000,   0,1.0000
    9,     6,'1 ', 0.03900, 0.17380,0.35800,   0.00,   0.00,   0.00,  0.00000,  0.00000,  0.00000,  0.00000,1,   0.0,   1,1.0000,   0,1.0000,   0,1.0000,   0,1.0000
    7,     8,'1 ', 0.00850, 0.05760,0.14900,   0.00,   0.00,   0.00,  0.00000,  0.00000,  0.00000,  0.00000,1,   0.0,   1,1.0000,   0,1.0000,   0,1.0000,   0,1.0000
    8,     9,'1 ', 0.01190, 0.10080,0.20900,   0.00,   0.00,   0.00,  0.00000,  0.00000,  0.00000,  0.00000,1,   0.0,   1,1.0000,   0,1.0000,   0,1.0000,   0,1.0000
0 / END OF BRANCH DATA, BEGIN TRANSFORMER DATA
    4,    1,    0,'1 ',1,1,1,  0.00000,  0.00000,2,'        ',1,   1,1.0000,   0,1.0000,   0,1.0000,   0,1.0000
 0.00000, 0.05760, 100.00
1.00000,230.000,   0.000,   0.00,   0.00,   0.00,0,     0, 1.50000, 0.51000, 1.50000, 0.51000,159, 0, 0.00000, 0.00000
1.00000, 16.500
    2,    7,    0,'1 ',1,1,1,  0.00000,  0.00000,2,'        ',1,   1,1.0000,   0,1.0000,   0,1.0000,   0,1.0000
 0.00000, 0.06250, 100.00
1.00000, 18.000,   0.000,   0.00,   0.00,   0.00,0,     2, 1.10000, 0.90000, 1.00000, 0.99000, 33, 0, 0.00000, 0.00000
1.00000,230.000
    9,    3,    0,'1 ',1,1,1,  0.00000,  0.00000,2,'        ',1,   1,1.0000,   0,1.0000,   0,1.0000,   0,1.0000
 0.00000, 0.05860, 100.00
1.00000,230.000,   0.000,   0.00,   0.00,   0.00,0,     9, 1.10000, 0.90000, 1.00000, 0.99000, 33, 0, 0.00000, 0.00000
1.00000, 13.800
0 / END OF TRANSFORMER DATA, BEGIN AREA DATA
   1,    0,     0.000,     1.000,'1           '
0 / END OF AREA DATA, BEGIN TWO-TERMINAL DC DATA
0 / END OF TWO-TERMINAL DC DATA, BEGIN VOLTAGE SOURCE CONVERTER DATA
0 / END OF VOLTAGE SOURCE CONVERTER DATA, BEGIN SWITCHED SHUNT DATA
0 / END OF SWITCHED SHUNT DATA, BEGIN IMPEDANCE CORRECTION DATA
0 / END OF IMPEDANCE CORRECTION DATA, BEGIN MULTI-TERMINAL DC DATA
0 / END OF MULTI-TERMINAL DC DATA, BEGIN MULTI-SECTION LINE DATA
0 / END OF MULTI-SECTION LINE DATA, BEGIN ZONE DATA
   1,'1       '
0 / END OF ZONE DATA, BEGIN INTER-AREA TRANSFER DATA
0 / END OF INTER-AREA TRANSFER DATA, BEGIN OWNER DATA
    1,'1'
0 / END OF OWNER DATA, BEGIN FACTS CONTROL DEVICE DATA
0 / END OF FACTS CONTROL DEVICE DATA
